70
11/10/2016 17:55, XYZ structure generated by mol3D Class, molSimplify
Ni 	0.000000	0.000000	0.000000
N 	-0.613140	-1.827366	0.748500
N 	-2.002133	0.140115	-0.912518
N 	0.902368	0.320816	2.025824
N 	-0.482444	2.287783	0.360887
C 	0.147416	-2.603994	1.623443
C 	-0.211236	-4.006336	1.452684
C 	-1.175489	-4.066629	0.474357
C 	-1.434036	-2.701407	0.034518
H 	0.215146	-4.827861	2.009083
H 	-1.664676	-4.946877	0.084424
C 	-2.363159	-2.338425	-0.970087
C 	1.109198	-2.121921	2.544168
C 	-3.570178	-0.645042	-2.438855
C 	-3.526957	0.723028	-2.567762
C 	-2.548017	1.219396	-1.608603
C 	-2.612912	-1.014252	-1.403820
H 	-4.190223	-1.339418	-2.986456
H 	-4.096230	1.338774	-3.248128
C 	-2.207176	2.582716	-1.432498
C 	1.525614	1.473639	2.505302
C 	2.491639	1.103199	3.531780
C 	2.450543	-0.265162	3.658395
C 	1.449742	-0.758825	2.720311
H 	3.112231	1.797378	4.078796
H 	3.040342	-0.883778	4.318406
C 	-0.905904	4.469522	-0.321820
C 	0.058854	4.529480	0.655827
C 	0.323949	3.163490	1.089192
C 	-1.245559	3.064745	-0.511740
H 	-1.350750	5.293458	-0.859782
H 	0.548010	5.409863	1.045788
C 	1.263906	2.799307	2.083136
H 	-2.899007	-3.096778	-1.420341
H 	1.798935	3.557731	2.534275
C 	-2.940353	3.690958	-2.336827
C 	-4.149696	3.945251	-2.930160
C 	-4.264697	5.157418	-3.816383
C 	-5.353117	3.163928	-2.755985
N 	-6.339457	2.568246	-2.644518
O 	-3.441080	6.058258	-3.744215
O 	-5.231765	5.244415	-4.756912
H 	-5.804950	4.498319	-4.977585
H 	-2.218122	4.457494	-2.570256
C 	1.977379	-3.072419	3.074058
O 	4.032191	-5.667000	3.737604
C 	3.565374	-4.712764	3.153772
O 	3.744721	-4.604240	1.787750
C 	2.723067	-3.719568	3.886761
H 	3.442065	-3.871022	1.206522
C 	3.060696	-3.082572	5.150402
N 	3.243420	-2.486432	6.130246
H 	2.817203	-2.589269	2.575778
O 	-0.000000	-0.000000	2.040000
H 	0.318484	0.715328	2.646198
H 	-0.318484	-0.715328	2.646184
S 	0.000177	-0.000062	-2.230000
C 	0.000177	-0.000062	-4.067128
C 	-0.459541	-1.378358	-4.560834
H 	-0.440815	-1.419095	-5.657528
H 	-1.481499	-1.612639	-4.245710
H 	0.195198	-2.185929	-4.203733
C 	1.434295	0.274187	-4.541537
H 	2.134349	-0.505142	-4.208816
H 	1.814756	1.234272	-4.174344
H 	1.481076	0.304307	-5.636605
C 	-0.952126	1.095241	-4.577414
H 	-1.785147	1.307923	-3.896057
H 	-1.397159	0.811692	-5.538291
H 	-0.423506	2.041609	-4.745862
