83
11/10/2016 17:55, XYZ structure generated by mol3D Class, molSimplify
Fe 	0.000000	0.000000	0.000000
C 	-0.000393	0.000414	4.897098
C 	-0.100481	1.196789	4.194231
C 	-0.097934	1.145333	2.809343
N 	-0.000001	0.000002	2.100000
C 	0.097932	-1.145330	2.809849
C 	0.100265	-1.195679	4.194769
H 	-0.000643	0.000807	5.983290
H 	-0.178903	2.145699	4.711882
H 	-0.177028	2.051534	2.215684
H 	0.177532	-2.051552	2.216713
H 	0.179079	-2.144772	4.712938
S 	-0.000042	2.270000	-0.000232
C 	-0.000042	4.107128	-0.000232
C 	-1.433824	4.600833	0.234946
H 	-1.471074	5.697527	0.209993
H 	-1.827305	4.285710	1.206778
H 	-2.127265	4.243733	-0.539646
C 	0.498305	4.581537	-1.372660
H 	-0.160062	4.248816	-2.187511
H 	1.506599	4.214344	-1.595950
H 	0.535466	5.676604	-1.414069
C 	0.930267	4.617414	1.113811
H 	1.008067	3.936057	1.970027
H 	0.579691	5.578291	1.508211
H 	1.948528	4.785861	0.742064
S 	2.270000	-0.000181	-0.000152
C 	4.107128	-0.000181	-0.000152
C 	4.600833	0.913777	-1.129629
H 	5.697527	0.910530	-1.174347
H 	4.285710	1.952982	-0.990565
H 	4.243733	0.583898	-2.115547
C 	4.581537	-1.439379	-0.246355
H 	4.248816	-1.821600	-1.221720
H 	4.214344	-2.132426	0.519283
H 	5.676604	-1.493753	-0.234558
C 	4.617414	0.507431	1.359590
H 	3.936057	1.212927	1.850949
H 	5.578291	1.023647	1.250155
H 	4.785861	-0.319549	2.060414
S 	-0.000191	-2.270000	-0.000139
C 	-0.000191	-4.107128	-0.000139
C 	0.837456	-4.600833	-1.187315
H 	0.831273	-5.697527	-1.231723
H 	1.883559	-4.285710	-1.116943
H 	0.443409	-4.243733	-2.149387
C 	-1.452471	-4.581537	-0.151096
H 	-1.898052	-4.248816	-1.099193
H 	-2.093630	-4.214344	0.658491
H 	-1.505951	-5.676604	-0.135746
C 	0.595805	-4.617414	1.323249
H 	1.332108	-3.936057	1.767114
H 	1.103700	-5.578291	1.180079
H 	-0.183262	-4.785861	2.076977
S 	-2.270000	0.000002	-0.000236
C 	-4.107128	0.000002	-0.000236
C 	-4.600833	-1.452517	-0.035299
H 	-5.697527	-1.484487	-0.066734
H 	-4.285710	-2.019561	0.846599
H 	-4.243733	-1.990118	-0.925153
C 	-4.581537	0.744452	-1.256302
H 	-4.248816	0.248789	-2.179204
H 	-4.214344	1.776671	-1.288540
H 	-5.676604	0.788655	-1.290093
C 	-4.617414	0.707341	1.267139
H 	-3.936057	0.624848	2.122915
H 	-5.578291	0.289645	1.589606
H 	-4.785861	1.776911	1.090873
C 	0.000211	0.000151	-3.257147
N 	0.000211	0.000151	-2.099999
C 	0.006940	0.004398	-4.700158
C 	0.644968	-0.895862	-5.562653
C 	0.483610	-0.523459	-6.839560
C 	-0.344262	0.664332	-6.835699
C 	-0.573336	0.948060	-5.564451
C 	-1.318240	2.042432	-5.090804
N 	-1.927998	2.938307	-4.703030
C 	-0.782830	1.389018	-7.957865
N 	-1.141899	1.982235	-8.876583
C 	0.987803	-1.232797	-7.992652
N 	1.451741	-1.811827	-8.880670
C 	1.361866	-2.007826	-5.086926
N 	1.948792	-2.918100	-4.697322
