77
11/10/2016 17:55, XYZ structure generated by mol3D Class, molSimplify
Ni 	0.000000	0.000000	0.000000
N 	0.000000	2.140000	0.000000
N 	2.140001	-0.000001	0.000000
C 	2.372240	1.412780	-0.350474
C 	1.398489	2.405534	0.322692
H 	1.650156	3.421071	0.014472
H 	1.524556	2.358280	1.412998
H 	2.294824	1.522815	-1.439643
H 	3.396579	1.678182	-0.069476
H 	-0.160146	2.282825	-0.994251
H 	-0.607005	2.780151	0.505204
H 	2.259038	-0.122978	0.999462
H 	2.786247	-0.590712	-0.488344
N 	0.000000	-2.140000	0.000000
N 	-0.000000	0.000001	2.140001
C 	-0.350474	-1.412780	2.372240
C 	0.322692	-2.405534	1.398489
H 	0.014472	-3.421071	1.650156
H 	1.412998	-2.358280	1.524556
H 	-1.439643	-1.522815	2.294824
H 	-0.069476	-1.678182	3.396579
H 	-0.994251	-2.282825	-0.160146
H 	0.505204	-2.780151	-0.607005
H 	0.999462	0.122978	2.259038
H 	-0.488344	0.590712	2.786247
H 	-7.824346	0.152012	-1.449191
C 	-6.774267	0.115938	-1.172543
H 	-6.247103	1.858267	-2.324059
C 	-5.888822	1.074879	-1.661651
C 	-6.311559	-0.886633	-0.324986
H 	-6.998769	-1.633674	0.063602
C 	-4.538439	1.034745	-1.302636
H 	-3.927921	-0.099642	-5.387728
C 	-4.962266	-0.929296	0.031877
H 	-3.797927	2.335088	-5.843309
H 	-3.865636	1.792548	-1.698398
C 	-3.170296	0.503307	-4.894404
C 	-3.101200	1.871645	-5.150412
C 	-4.057974	0.031908	-0.451894
H 	-4.625537	-1.717889	0.701137
C 	-2.267981	-0.099632	-4.009605
H 	-2.353140	-1.167374	-3.834966
C 	-2.134394	2.643666	-4.516957
H 	-2.644310	-1.975807	-1.327896
H 	-2.073049	3.712044	-4.705942
C 	-1.275175	0.656878	-3.380231
P 	-2.270000	0.000000	0.000000
C 	-1.230751	2.039983	-3.640901
C 	-1.823462	-1.620446	-0.691695
H 	-3.573653	1.775958	1.845382
P 	-0.000001	-0.000000	-2.269999
H 	-1.720491	-2.398814	0.070670
H 	-0.478378	2.664971	-3.161679
C 	-3.165586	0.954445	2.435476
C 	-2.453541	-0.088699	1.806190
C 	-0.572828	-1.605942	-1.569329
H 	-0.701729	-2.364486	-2.349397
C 	-3.390456	0.965030	3.812455
C 	-1.927843	-1.098287	2.614493
H 	-0.063589	-1.931615	-4.574702
H 	-3.958930	1.773443	4.263046
C 	1.225640	-0.565870	-3.483424
H 	0.262007	-1.969002	-0.954599
H 	-1.339700	-1.907119	2.196074
C 	0.931507	-1.505097	-4.483936
C 	-2.886241	-0.065564	4.597635
C 	-2.151646	-1.089554	3.999956
C 	2.523048	-0.040310	-3.424147
H 	2.786325	0.694066	-2.665755
C 	1.905403	-1.910714	-5.397676
H 	-3.062546	-0.067433	5.668008
H 	-1.747330	-1.888977	4.616818
H 	1.655614	-2.636364	-6.167300
C 	3.498189	-0.444638	-4.339354
C 	3.189413	-1.379698	-5.324873
H 	4.498657	-0.024707	-4.282682
H 	3.946938	-1.690814	-6.038282
