78
11/10/2016 17:55, XYZ structure generated by mol3D Class, molSimplify
Cr 	0.000000	0.000000	0.000000
C 	0.000000	0.000000	2.090000
N 	0.000000	0.000000	3.235100
C 	0.000000	0.000000	4.773000
H 	0.622372	-0.859403	5.125200
H 	-1.055428	-0.109301	5.125200
H 	0.433057	0.968704	5.125200
C 	-0.068167	0.059606	-3.604692
C 	-0.000041	0.000036	-2.090000
H 	0.114282	1.100803	-3.944533
H 	-1.074171	-0.262023	-3.945578
H 	0.699892	-0.609840	-4.044782
H 	1.001243	0.327905	-1.741317
H 	-0.189493	-1.037704	-1.742159
S 	-0.000141	2.287899	-0.029844
C 	1.401930	3.507098	-0.032889
C 	1.282279	4.479242	-1.224060
C 	-0.006909	5.328006	-1.194827
C 	-1.293378	4.473521	-1.223603
C 	-1.402212	3.509782	-0.026799
H 	2.315795	2.899111	-0.092143
H 	1.396494	4.039835	0.930341
H 	2.165897	5.142043	-1.197860
H 	1.340322	3.912189	-2.170159
H 	-0.008277	5.958100	-0.284912
H 	-0.008186	6.018934	-2.054206
H 	-2.180685	5.131047	-1.200818
H 	-1.346208	3.900980	-2.166511
H 	-2.315940	2.900622	-0.061742
H 	-1.384445	4.052751	0.930425
S 	2.287899	-0.027987	0.010364
C 	3.507098	0.462280	1.323929
C 	4.479242	-0.694869	1.630864
C 	5.328006	-1.120920	0.413761
C 	4.473521	-1.600317	-0.780395
C 	3.509782	-0.518254	-1.303200
H 	2.899111	0.728224	2.200246
H 	4.039835	1.362058	0.980066
H 	5.142043	-0.359569	2.448814
H 	3.912189	-1.560108	2.017948
H 	5.958100	-0.269620	0.092458
H 	6.018934	-1.925842	0.714815
H 	5.131047	-1.891059	-1.619026
H 	3.900980	-2.501563	-0.498223
H 	2.900622	-0.872328	-2.146261
H 	4.052751	0.384063	-1.623230
S 	-0.026694	-2.287899	-0.013346
C 	-0.650461	-3.507098	1.242333
C 	-1.665407	-4.479242	0.607439
C 	-1.068162	-5.328006	-0.535434
C 	-0.524130	-4.473521	-1.701564
C 	0.597072	-3.509782	-1.269024
H 	-1.108374	-2.899111	2.035412
H 	0.215531	-4.039835	1.664115
H 	-2.033309	-5.142043	1.411252
H 	-2.539341	-3.912189	0.240411
H 	-0.251772	-5.958100	-0.133620
H 	-1.838072	-6.018934	-0.917233
H 	-0.110676	-5.131047	-2.486986
H 	-1.346094	-3.900980	-2.166582
H 	0.970473	-2.900622	-2.103705
H 	1.447402	-4.052751	-0.829099
S 	-2.287899	-0.028601	0.008525
C 	-3.507098	-0.425653	-1.336155
C 	-4.479242	-1.535158	-0.886483
C 	-5.328006	-1.144706	0.342503
C 	-4.473521	-0.810688	1.585187
C 	-3.509782	0.368451	1.353204
H 	-2.899111	-0.739410	-2.196513
H 	-4.039835	0.500264	-1.601707
H 	-5.142043	-1.758404	-1.741836
H 	-3.912189	-2.459423	-0.676232
H 	-5.958100	-0.271097	0.088033
H 	-6.018934	-1.969072	0.585304
H 	-5.131047	-0.539395	2.430309
H 	-3.900980	-1.700724	1.900942
H 	-2.900622	0.591771	2.239910
H 	-4.052751	1.282083	1.067072
