16
11/10/2016 17:55, XYZ structure generated by mol3D Class, molSimplify
Co 	0.000000	0.000000	0.000000
C 	-0.000000	2.210000	0.000000
O 	-0.000000	3.348055	0.000000
C 	2.210000	0.000000	0.000000
O 	3.348055	0.000000	0.000000
C 	-0.000000	-2.210000	0.000000
O 	-0.000000	-3.348055	-0.000000
C 	-2.210000	0.000000	0.000000
O 	-3.348055	0.000000	0.000000
C 	0.000000	0.000000	-2.210000
O 	0.000000	0.000000	-3.348055
S 	0.000024	0.000093	2.280000
C 	0.000024	0.000093	4.094688
H 	0.761445	-0.712563	4.473707
H 	-1.013436	-0.246270	4.473618
H 	0.267001	1.016493	4.449979
