37
11/10/2016 15:44, XYZ structure generated by mol3D Class, molSimplify
Ni 	0.000000	0.000000	0.000000
C 	-1.513207	1.513210	-0.000002
C 	-2.455712	1.253897	1.090652
C 	-2.222370	1.487493	-1.281318
C 	-0.886668	2.823366	0.190658
N 	-0.390547	3.858239	0.341373
N 	-2.782088	1.466314	-2.294155
N 	-3.200048	1.048069	1.952854
C 	-1.513211	-1.513206	-0.000000
C 	-0.882566	-2.827044	-0.145612
C 	-2.430236	-1.279626	-1.117965
C 	-2.251957	-1.458077	1.263577
N 	-2.835123	-1.413662	2.262455
N 	-3.154265	-1.094138	-2.001679
N 	-0.383205	-3.864913	-0.260775
C 	1.513206	-1.513211	-0.000001
C 	2.827860	-0.881749	0.134257
C 	1.450606	-2.259256	-1.258904
C 	1.286280	-2.423754	1.124645
N 	1.106057	-3.142728	2.013694
N 	1.400272	-2.848130	-2.254026
N 	3.866382	-0.381736	0.240350
C 	1.513207	1.513210	0.000002
C 	2.686744	1.022865	-0.726260
C 	1.883701	1.826162	1.382079
C 	0.994302	2.715731	-0.655814
N 	0.583268	3.665518	-1.174242
N 	2.175713	2.072689	2.474565
N 	3.613718	0.634399	-1.300375
S 	-0.022769	0.013783	2.228455
C 	-0.022769	0.013783	4.045843
C 	-1.243533	0.752755	4.572777
H 	-1.233155	0.746430	5.683016
H 	-2.172791	0.256726	4.220435
H 	-1.234946	1.806103	4.220436
H 	0.901410	0.511007	4.408804
H 	-0.034748	-1.035538	4.408825
