32
11/10/2016 15:43, XYZ structure generated by mol3D Class, molSimplify
Mn 	0.000000	0.000000	0.000000
O 	0.000000	2.100000	0.000000
C 	0.944045	2.873709	-0.001917
C 	0.713312	4.365007	-0.006014
C 	2.344444	2.410151	0.000167
C 	2.820666	0.997967	0.001589
O 	2.100001	-0.000001	0.000000
C 	4.311424	0.799362	0.004592
H 	-0.364116	4.563170	-0.008064
H 	1.144348	4.811924	-0.905402
H 	1.141861	4.816514	0.892268
H 	4.850060	1.748640	0.007604
H 	4.590651	0.240970	-0.891893
H 	4.586676	0.237742	0.900295
H 	3.098583	3.184182	0.000914
O 	0.000000	-2.100000	0.000000
C 	-0.944998	-2.874172	-0.001606
C 	-0.715162	-4.363597	-0.006006
C 	-2.345772	-2.407054	0.000665
C 	-2.818050	-0.998762	0.001860
O 	-2.100001	0.000001	0.000000
C 	-4.311439	-0.799637	0.005060
H 	0.364428	-4.562611	-0.008161
H 	-1.145379	-4.810153	-0.905271
H 	-1.142825	-4.814969	0.892009
H 	-4.851521	-1.749738	0.008429
H 	-4.593631	-0.241132	-0.892212
H 	-4.589467	-0.237294	0.901241
H 	-3.099228	-3.181310	0.001439
Cl 	0.000000	0.000000	-2.380000
C 	0.000000	0.000000	2.050000
O 	-0.000000	-0.000000	3.188055
