65
11/10/2016 15:44, XYZ structure generated by mol3D Class, molSimplify
Cr 	0.000000	0.000000	0.000000
O 	0.000000	2.090000	0.000000
C 	1.200241	2.310543	0.000082
C 	2.300042	1.216294	0.000100
C 	3.695883	1.720493	0.000152
C 	4.044249	3.137193	0.000515
C 	5.547093	3.503169	0.000407
C 	6.229019	2.932430	1.262105
C 	6.229158	2.932351	-1.261218
C 	5.816825	5.029812	0.000344
C 	3.056558	4.052163	0.000404
C 	1.665624	3.708252	0.000445
O 	2.089999	0.000001	-0.000000
H 	4.458467	0.952720	0.000236
H 	5.753585	3.314861	2.173283
H 	7.288364	3.211916	1.298917
H 	6.186421	1.838858	1.297584
H 	5.753851	3.314753	-2.172472
H 	6.186570	1.838781	-1.296654
H 	7.288525	3.211820	-1.297913
H 	5.396332	5.514832	-0.888447
H 	6.893333	5.240337	0.000339
H 	5.396332	5.514901	0.889082
H 	3.257465	5.120708	0.000795
H 	0.906313	4.480328	0.000459
O 	0.000000	-2.090000	0.000000
C 	-1.200212	-2.310713	-0.000278
C 	-2.300043	-1.216424	0.000116
C 	-3.696552	-1.721492	-0.000121
C 	-4.043758	-3.138410	0.000307
C 	-5.546648	-3.504414	0.000433
C 	-6.227700	-2.934179	1.262391
C 	-6.227750	-2.933868	-1.261382
C 	-5.814583	-5.031164	0.000278
C 	-3.056178	-4.052723	-0.000164
C 	-1.665156	-3.708472	0.000411
O 	-2.089999	-0.000001	-0.000000
H 	-4.458577	-0.953066	0.000783
H 	-5.752674	-3.317733	2.173354
H 	-7.287230	-3.213010	1.298837
H 	-6.184324	-1.840694	1.298987
H 	-5.752610	-3.317151	-2.172358
H 	-6.184323	-1.840373	-1.297590
H 	-7.287288	-3.212694	-1.297875
H 	-5.393588	-5.515831	-0.888503
H 	-6.890872	-5.242628	0.000261
H 	-5.393605	-5.516009	0.888991
H 	-3.255669	-5.120509	0.000312
H 	-0.905336	-4.479237	0.000240
N 	-0.000001	0.000001	2.200000
C 	-1.072848	-0.538980	2.891872
C 	1.072846	0.538982	2.891956
N 	1.969042	0.989326	3.469473
N 	-1.969145	-0.989184	3.469283
C 	-0.000127	0.000563	-4.997098
C 	-0.935844	0.752738	-4.294231
C 	-0.894617	0.721843	-2.909343
N 	-0.000006	0.000008	-2.200000
C 	0.894606	-0.721828	-2.909849
C 	0.935037	-0.751925	-4.294769
H 	-0.000313	0.000991	-6.083290
H 	-1.678551	1.348528	-4.811882
H 	-1.601544	1.294302	-2.315684
H 	1.601268	-1.294717	-2.316713
H 	1.677675	-1.348144	-4.812938
