138
11/10/2016 15:44, XYZ structure generated by mol3D Class, molSimplify
Fe 	0.000000	0.000000	0.000000
O 	0.000000	0.000000	2.120000
H 	0.782547	0.027327	2.726198
H 	-0.782547	-0.027327	2.726184
C 	-0.000000	2.030000	0.000145
N 	-0.000000	3.187567	0.000145
C 	0.000054	4.569626	0.000271
C 	-0.053945	5.269447	-1.206220
C 	-0.053647	6.666287	-1.210009
C 	0.000875	7.395934	0.000149
C 	0.000173	8.940379	-0.038370
C 	1.227025	9.434829	-0.834913
C 	-1.292783	9.436727	-0.721382
C 	0.063928	9.584422	1.367709
C 	0.055020	6.667368	1.213913
C 	0.054238	5.268995	1.207101
H 	-0.096098	4.730771	-2.145036
H 	-0.096230	7.177475	-2.161997
H 	2.166830	9.089697	-0.351751
H 	1.245976	10.545467	-0.880321
H 	1.216918	9.061125	-1.879709
H 	-2.185752	9.092955	-0.155718
H 	-1.377195	9.062955	-1.762843
H 	-1.313933	10.547370	-0.765063
H 	-0.815506	9.289963	1.980339
H 	0.061530	10.693847	1.293462
H 	0.994588	9.288543	1.898731
H 	0.098134	7.162159	2.171854
H 	0.096188	4.729267	2.145148
C 	2.030000	0.000145	0.000007
N 	3.187567	0.000145	0.000007
C 	4.569626	0.000268	0.000068
C 	5.269447	-1.201803	-0.116386
C 	6.666287	-1.205603	-0.116284
C 	7.395934	0.000103	0.000882
C 	8.940379	-0.038327	-0.001816
C 	9.434829	-0.897382	1.182106
C 	9.436727	-0.653414	-1.328432
C 	9.584422	1.362558	0.134724
C 	6.667368	1.209430	0.117858
C 	5.268995	1.202668	0.116724
H 	4.730771	-2.137173	-0.207137
H 	7.177475	-2.154104	-0.208148
H 	9.089697	-0.463575	2.145689
H 	10.545467	-0.943711	1.198678
H 	9.061125	-1.940250	1.117866
H 	9.092955	-0.042231	-2.190885
H 	9.062955	-1.689100	-1.466704
H 	10.547370	-0.695940	-1.351817
H 	9.289963	2.019941	-0.711778
H 	10.693847	1.288535	0.128482
H 	9.288543	1.844634	1.091654
H 	7.162159	2.163849	0.210560
H 	4.729267	2.137281	0.207233
C 	0.000145	-2.030000	0.000005
N 	0.000145	-3.187567	0.000005
C 	0.000269	-4.569626	0.000063
C 	-1.203722	-5.269447	-0.094499
C 	-1.207519	-6.666287	-0.094328
C 	0.000119	-7.395934	0.000880
C 	-0.038354	-8.940379	-0.001119
C 	-0.875725	-9.434829	1.198238
C 	-0.677477	-9.436727	-1.316323
C 	1.364783	-9.584422	0.109909
C 	1.211374	-6.667368	0.095832
C 	1.204593	-5.268995	0.094821
H 	-2.140588	-4.730771	-0.168216
H 	-2.157535	-7.177475	-0.168919
H 	-0.424457	-9.089697	2.153768
H 	-0.921745	-10.545467	1.215651
H 	-1.919589	-9.061125	1.152984
H 	-0.082088	-9.092955	-2.189754
H 	-1.715507	-9.062955	-1.435728
H 	-0.720421	-10.547370	-1.338931
H 	2.006656	-9.289963	-0.748414
H 	1.290659	-10.693847	0.105015
H 	1.864192	-9.288543	1.057910
H 	2.167322	-7.162159	0.171153
H 	2.140697	-4.729267	0.168310
C 	-2.030000	-0.000011	0.000145
N 	-3.187567	-0.000011	0.000145
C 	-4.569626	0.000035	0.000274
C 	-5.269447	0.032451	-1.206990
C 	-6.666287	0.033020	-1.210748
C 	-7.395934	0.000862	0.000211
C 	-8.940379	0.002916	-0.038259
C 	-9.434829	1.283589	-0.745029
C 	-9.436727	-1.237887	-0.811984
C 	-9.584422	-0.034042	1.368779
C 	-6.667368	-0.031929	1.214739
C 	-5.268995	-0.032222	1.207890
H 	-4.730771	0.057542	-2.146416
H 	-7.177475	0.058623	-2.163343
H 	-9.089697	2.186437	-0.195898
H 	-10.545467	1.305739	-0.788966
H 	-9.061125	1.348223	-1.787873
H 	-9.092955	-2.169021	-0.311625
H 	-9.062955	-1.247606	-1.856814
H 	-10.547370	-1.255859	-0.857065
H 	-9.289963	-0.955035	1.916951
H 	-10.693847	-0.031124	1.294550
H 	-9.288543	0.856261	1.964994
H 	-7.162159	-0.057429	2.173311
H 	-4.729267	-0.057460	2.146535
C 	2.144954	1.776077	-2.389904
C 	1.272825	0.995420	-3.164064
P 	0.000956	0.001375	-2.309994
C 	-1.498320	0.688314	-3.097868
C 	-2.093243	1.806216	-2.483176
C 	-3.227128	2.416182	-3.026553
C 	-3.791039	1.917072	-4.195786
C 	-3.216715	0.814198	-4.822379
C 	-2.076481	0.208928	-4.281264
C 	0.228362	-1.679610	-2.981219
C 	-0.833182	-2.600567	-2.990318
C 	-0.658131	-3.904810	-3.464309
C 	0.590033	-4.324142	-3.914325
C 	1.665917	-3.444564	-3.875180
C 	1.488091	-2.141298	-3.401189
C 	1.424080	1.013839	-4.559208
C 	2.427420	1.777820	-5.161079
C 	3.286905	2.542578	-4.376884
C 	3.143906	2.544797	-2.991476
H 	2.054360	1.793372	-1.304910
H 	-1.668376	2.224608	-1.572235
H 	-3.662378	3.283740	-2.537596
H 	-4.671430	2.390740	-4.621636
H 	-3.650440	0.426367	-5.740549
H 	-1.645087	-0.634288	-4.813830
H 	-1.816609	-2.311150	-2.623110
H 	-1.497742	-4.595014	-3.472292
H 	0.728542	-5.338271	-4.278971
H 	2.650351	-3.769772	-4.203203
H 	2.362274	-1.494749	-3.358551
H 	0.770064	0.423062	-5.195322
H 	2.535218	1.773046	-6.242264
H 	4.066284	3.137501	-4.844977
H 	3.811060	3.144075	-2.376571
