24
11/10/2016 15:44, XYZ structure generated by mol3D Class, molSimplify
Co 	0.000000	0.000000	0.000000
C 	-0.000000	-0.000000	1.960000
H 	0.599079	-0.756601	1.465334
O 	-0.037740	0.047663	3.177973
N 	-1.520280	1.520280	0.000007
C 	-2.848334	1.170681	-0.185039
C 	-1.170740	2.848393	0.185053
N 	-0.878353	3.957512	0.339540
N 	-3.957379	0.878218	-0.339698
N 	-1.520284	-1.520275	0.000002
C 	-1.587841	-2.431173	1.042063
C 	-2.431242	-1.587892	-1.042058
N 	-3.191804	-1.644061	-1.912627
N 	-1.643822	-3.191775	1.912572
N 	1.520275	-1.520284	0.000002
C 	2.440679	-1.578336	1.034254
C 	1.578386	-2.440747	-1.034249
N 	1.626615	-3.209251	-1.898296
N 	3.209221	-1.626376	1.898239
N 	1.520278	1.520281	0.000006
C 	1.274499	2.744515	-0.600854
C 	2.744571	1.274562	0.600867
N 	3.766984	1.068881	1.102731
N 	1.068786	3.766810	-1.102879
