40
# extracted from Terachem optimization
Mn -0.0553282116 0.3432494904 2.4851837148
N 0.1965508919 0.2102045022 4.7851019889
H -0.7673465181 0.3038983671 5.1012731473
H 0.5127441122 -0.7209165170 5.0473548408
H 0.7811358355 0.8945798315 5.2650455179
C -0.2165267320 2.7769877074 0.6837465924
C -0.1507993425 2.4509702215 2.1864149782
H -1.0694594865 2.2765005241 0.2071817019
H 0.6827575625 2.4239445138 0.1637061346
H -0.3049469848 3.8520832287 0.4448270920
H -1.0257150515 2.9078191596 2.6831672598
H 0.7413468776 2.9484740422 2.6101190278
C 3.0208951534 -0.1506843720 2.8809928553
C 1.9948188555 0.3780282231 1.8627324374
H 2.7313135286 -1.1362599775 3.2738984592
H 3.1134632080 0.5229441667 3.7492860057
H 4.0504632722 -0.2578816141 2.4845965014
H 2.0473192915 -0.2314116497 0.9464883437
H 2.2909618288 1.3970552723 1.5670846005
C 0.9185596115 -2.7731582562 1.9934737296
C -0.2265429259 -1.7549632160 2.0052744432
H 1.3653630997 -2.8855357151 2.9932489681
H 1.7297045484 -2.4818716380 1.3145087713
H 0.5870527494 -3.7840193191 1.6873615804
H -1.0265932148 -2.1548050377 2.6543517890
H -0.6753007247 -1.7460153409 0.9930179180
C -3.0324985944 0.0239872974 1.5514356653
C -2.1676469604 0.2154871582 2.8075827022
H -2.7806425822 -0.8990673712 1.0084018943
H -2.8689485546 0.8420937797 0.8347629800
H -4.1226765143 -0.0082398784 1.7520315988
H -2.3337494427 -0.6405708822 3.4906806241
H -2.5226179607 1.1217300988 3.3400263067
C -0.2886290081 -0.5620718676 -12.1591039592
C -1.6449781775 -0.2336555006 -11.9493150285
C 0.1571985606 -1.8924002099 -12.0013767516
C 0.6099554838 0.4305152766 -12.6078544546
N 1.3540591048 1.2454181158 -13.0035101244
N 0.5309646402 -2.9972206865 -11.8828022389
N -2.7706488680 0.0468350591 -11.7788968763
