65
# extracted from Terachem optimization
Cr 0.0004358071 0.0000693483 0.3434351408
O 0.1436440153 1.9569686640 0.1476506126
C 1.3974505416 2.3829468955 0.0656096973
C 2.4094398087 1.3729834485 0.1428425298
C 3.7550010535 1.7276238630 0.0512190400
C 4.1588496110 3.0757225771 -0.1112757574
C 5.6605847069 3.4039930412 -0.1995072438
C 6.3842245632 2.9169648908 1.0792848106
C 6.2836461847 2.6975064237 -1.4284904200
C 5.9296277482 4.9149958296 -0.3365488863
C 3.1600724264 4.0511979584 -0.1840759757
C 1.7947836400 3.7126022286 -0.0989639982
O 1.9657803914 0.1223288523 0.2823622831
H 4.4887856802 0.9264427732 0.1201235235
H 5.9772846043 3.4185463013 1.9651195765
H 7.4623916019 3.1306534275 1.0282984723
H 6.2574819066 1.8401261044 1.2273486395
H 5.8188346554 3.0557618336 -2.3551864036
H 6.1327724731 1.6141760366 -1.3828978967
H 7.3656169822 2.8879568873 -1.4925263719
H 5.4816133358 5.3254780197 -1.2491411569
H 7.0112637933 5.1013852235 -0.3777138039
H 5.5256546299 5.4704949041 0.5175893708
H 3.4213954467 5.0990102793 -0.3068732579
H 1.0305139318 4.4864057443 -0.1548299456
O -0.1427919051 -1.9579776704 0.1468415627
C -1.3964537720 -2.3839968116 0.0651713426
C -2.4083043933 -1.3739229345 0.1431203378
C -3.7540459321 -1.7281578049 0.0518293279
C -4.1582216432 -3.0761336231 -0.1111625284
C -5.6598801673 -3.4042970248 -0.1992990558
C -6.3833599790 -2.9174301585 1.0796407586
C -6.2831004481 -2.6975763305 -1.4280223574
C -5.9291209037 -4.9152332281 -0.3365471083
C -3.1596181013 -4.0516670122 -0.1845520057
C -1.7942938068 -3.7134921318 -0.0996827258
O -1.9645175449 -0.1232131729 0.2830651698
H -4.4878380681 -0.9269316845 0.1212283383
H -5.9764256863 -3.4192170298 1.9653676915
H -7.4615686475 -3.1309993192 1.0287646506
H -6.2565715580 -1.8406169515 1.2279679197
H -5.8185307222 -3.0557241346 -2.3548439345
H -6.1322321715 -1.6142587718 -1.3823742180
H -7.3650768256 -2.8879292239 -1.4919639223
H -5.4811932270 -5.3255721076 -1.2492326538
H -7.0107943816 -5.1014805103 -0.3776973464
H -5.5251466308 -5.4708884673 0.5174877267
H -3.4207939931 -5.0993555337 -0.3077453569
H -1.0299905461 -4.4871359783 -0.1559361412
N 0.0010144219 -0.0013621309 2.4557189414
C -1.1245743497 0.0279898313 3.1713092295
C 1.1271218272 -0.0313831732 3.1704761124
N 2.1183485434 -0.0593404828 3.7954194764
N -2.1154541230 0.0550602293 3.7968653150
C -0.0002247036 0.0000057350 -4.6206261395
C -1.1751495802 0.2443112519 -3.9102897110
C -1.1320142469 0.2373410738 -2.5171131956
N 0.0001467461 -0.0002921065 -1.8379268849
C 1.1321912835 -0.2374158762 -2.5174717120
C 1.1748652667 -0.2445211209 -3.9106445543
H -0.0003348335 -0.0000322944 -5.7084237492
H -2.1147778139 0.4347477307 -4.4206946202
H -1.9984435526 0.4125941430 -1.8881665605
H 1.9986678867 -0.4128651993 -1.8886646195
H 2.1143906801 -0.4347461044 -4.4212822389
