24
# extracted from Terachem optimization
Co -12.1728402832 13.7778182110 -2.8103308808
C -10.2953895329 13.0611202962 -3.0698252822
H -10.1430333208 11.9344977959 -2.9965321799
O -9.2961833833 13.7302370552 -3.2870976278
N -12.7948966210 13.2158818524 -0.8962753427
C -11.9004306353 13.1426685268 0.0891973550
C -14.0440435211 12.8366857839 -0.6215587229
N -15.1539148652 12.5083076980 -0.4387501116
N -11.0614592306 13.0939680876 0.9066191478
N -13.4550806608 12.8793944073 -4.2079499811
C -13.1617201055 11.6609823564 -4.6593159332
C -14.5484688963 13.4704481962 -4.6925092631
N -15.4940826937 14.0386184176 -5.0872451133
N -12.8385780777 10.5903485340 -5.0123678847
N 48.2333537030 -52.6454183513 12.3109192331
C 48.7482200992 -52.7320727549 11.1054738477
C 46.9415024897 -52.7313239192 12.5335391566
N 45.8111212376 -52.7916361437 12.8648925032
N 49.3317748680 -52.7931156386 10.0821917424
N -12.3954365313 15.8352849122 -3.0234621530
C -12.8989014374 16.6082240229 -2.0600357078
C -11.9541484858 16.4425239488 -4.1261812524
N -11.5502754091 16.9158754234 -5.1192530236
N -13.3455016273 17.2416991838 -1.1812042892
