32
# extracted from Terachem optimization
Mn 0.0375134354 0.0287107713 0.3121485128
O 0.2840817905 1.9021592115 0.0318365636
C 1.2869598298 2.4637739666 -0.5382145942
C 1.0925750446 3.9223419551 -0.8672414847
C 2.4913620560 1.8143584332 -0.8385323887
C 2.7505274760 0.4807923797 -0.4963411646
O 1.9030499883 -0.3011081136 0.0671427236
C 4.1030267684 -0.1324681576 -0.7586702284
H 0.2953101020 4.0119999473 -1.6141630168
H 2.0027272723 4.3833424210 -1.2569813015
H 0.7611755273 4.4623937711 0.0259217703
H 4.7918946318 0.5765057141 -1.2234210764
H 3.9809690434 -1.0026549341 -1.4134922366
H 4.5343552305 -0.4904868687 0.1831957929
H 3.2787361087 2.3854922281 -1.3141436765
O -0.1861352352 -1.8426614571 0.6370666574
C -1.2981445554 -2.4812111865 0.6039711069
C -1.1668764734 -3.9835430589 0.6218199204
C -2.5613058403 -1.8744737115 0.5704522850
C -2.7583219128 -0.4884280391 0.6136263182
O -1.8151692108 0.3823743033 0.6239652369
C -4.1502097357 0.0901266442 0.6712237211
H -0.6429925809 -4.3040246563 -0.2862315698
H -2.1374656174 -4.4819664937 0.6699703639
H -0.5546193357 -4.2917010210 1.4762003865
H -4.9192366580 -0.6841852980 0.7193467913
H -4.3164064352 0.7096398060 -0.2176560693
H -4.2387701845 0.7459312322 1.5446028486
H -3.4351381362 -2.5138715007 0.5607308079
Cl -0.3427161560 -0.3054855108 -1.9397674189
C 0.3681848941 0.3246316944 2.2872164801
O 0.5499698191 0.5026061278 3.3940641384
