32
# extracted from Terachem optimization
Mn 0.0001775029 -0.0002808554 -0.3567242420
O -0.0190554509 1.9010969754 -0.0557916093
C 0.9505752879 2.7372013141 -0.0525793071
C 0.5628537715 4.1940895718 0.0166722731
C 2.3027436116 2.3685733580 -0.0893391228
C 2.7023995645 1.0321417399 -0.0592677650
O 1.8922802792 0.0333519895 -0.0622413994
C 4.1608957234 0.6597619689 0.0040076438
H -0.5235235058 4.2927187301 0.0479770454
H 0.9477903257 4.7231799735 -0.8629872275
H 1.0008393245 4.6690696522 0.9019461524
H 4.8073071143 1.5395821321 0.0385667819
H 4.4160770021 0.0550042301 -0.8738854902
H 4.3418389761 0.0391773909 0.8891681495
H 3.0580996012 3.1443745901 -0.0782682986
O 0.0199582703 -1.9013823356 -0.0561090063
C -0.9492745655 -2.7379649450 -0.0527888184
C -0.5607666753 -4.1945983842 0.0166353415
C -2.3015733971 -2.3699514611 -0.0895446254
C -2.7018069153 -1.0336615874 -0.0594046826
O -1.8921376104 -0.0345200390 -0.0622172383
C -4.1604339838 -0.6617574328 0.0037828819
H 0.5256595764 -4.2925919008 0.0478222395
H -0.9455303384 -4.7240310881 -0.8628731568
H -0.9983681239 -4.6696090258 0.9020648419
H -4.8067069713 -1.5416771018 0.0382250964
H -4.4156181490 -0.0569889728 -0.8740975946
H -4.3415391296 -0.0412599405 0.8889673174
H -3.0565509455 -3.1461280911 -0.0785083518
Cl -0.0003309769 0.0011389822 -2.7611410869
C 0.0001115796 -0.0001077147 2.8224541920
O 0.0000151752 0.0001523288 3.9585520831
