65
#1000_Co_2_eq_9_ax1_18_ax2_40_2
Co        0.046700672     0.007118321     0.216539999
C        0.075714449     0.039665937     1.697722100
N        0.315857555    -0.050981167     2.923359115
C       -0.474629964     0.376289296     4.054521042
H       -0.470310369    -0.437112610     4.808174849
H       -1.520138406     0.623947457     3.816324151
H        0.001284711     1.257923912     4.526053459
C       -0.027963369     4.796343938    -0.355115749
C        0.759600678     3.996270185    -1.170337438
C        0.827001894     2.617097391    -0.928213978
N        0.139819942     2.032875370     0.091363439
C       -0.617531667     2.834566938     0.902322389
C       -0.723276614     4.205525909     0.705694227
H       -0.104860021     5.872175895    -0.532914753
H        1.320394973     4.418109584    -2.006469764
H        1.426307703     1.938970237    -1.574796760
H       -1.138055030     2.321960899     1.721027436
H       -1.341469965     4.809297211     1.370113299
C        4.821695803     0.088025882    -0.394332300
C        4.021683128    -0.729371575    -1.181776134
C        2.646022700    -0.798249854    -0.930651007
N        2.062325184    -0.083741756     0.072107483
C        2.864075080     0.692972836     0.864006038
C        4.233707482     0.803093916     0.652757389
H        5.895338436     0.168908712    -0.584061871
H        4.443603691    -1.312926084    -2.001817696
H        1.968273155    -1.422789802    -1.553129598
H        2.356185919     1.219360321     1.685850961
H        4.836458520     1.439610445     1.300961483
C        0.133865836    -4.800124364    -0.130525788
C       -0.684472385    -4.043057127    -0.958460198
C       -0.753997194    -2.656477532    -0.777808329
N       -0.038996313    -2.020471482     0.191546153
C        0.747928510    -2.777874039     1.016631193
C        0.855566379    -4.156898072     0.879114753
H        0.212486431    -5.882591217    -0.261486079
H       -1.266879894    -4.506760400    -1.756096076
H       -1.378023975    -2.011131957    -1.435025050
H        1.288290588    -2.225087872     1.802155311
H        1.496861755    -4.724122451     1.554305967
C       -4.758866120    -0.092774304    -0.153065989
C       -4.004966733     0.719166513    -0.988818156
C       -2.616680765     0.792803056    -0.813399141
N       -1.979176543     0.090981193     0.164268671
C       -2.734034786    -0.693704181     0.994220834
C       -4.111909869    -0.807503346     0.860758853
H       -5.841963062    -0.173835451    -0.280091490
H       -4.471187025     1.294874433    -1.790962915
H       -1.974782976     1.411291396    -1.479667122
H       -2.176679200    -1.233626338     1.772405890
H       -4.677679354    -1.448970796     1.537026994
S       -0.023793306    -0.016386471    -1.900274817
C       -0.094505150    -0.090776956    -3.746316338
C        1.211696148    -0.712660864    -4.253358711
H        1.216566513    -0.766442129    -5.348689181
H        1.346834645    -1.729650532    -3.871860197
H        2.081312314    -0.123175129    -3.945305697
C       -0.255433051     1.337728699    -4.278378096
H        0.579236178     1.976150993    -3.972305794
H       -1.174661279     1.803281774    -3.909555793
H       -0.294658544     1.342796279    -5.374186455
C       -1.295157828    -0.953883433    -4.152035154
H       -1.193827987    -1.980713356    -3.788128471
H       -1.390584664    -0.996522949    -5.243593254
H       -2.231426753    -0.552935616    -3.751545584
