29
#1001_Mn_2_eq_3_ax1_37_ax2_9_2
Mn        0.004599786     0.064096897     0.028306523
O       -0.107500576     1.975072282    -0.220118911
H        0.808174537     2.096492619     0.270219666
H       -0.770344178     2.111328569     0.574896321
O        2.230889842    -0.345323797    -0.089748514
H        2.664392732     0.172825451    -0.807938822
H        2.844047137    -0.178590254     0.670986414
O        0.003961961    -1.864593961    -0.152848294
H        0.929242814    -1.914270937     0.320759916
H       -0.650909364    -2.043427653     0.624956113
O       -2.242916769     0.268731229    -0.102864990
H       -2.829335378     0.050375567     0.660250170
H       -2.637094094    -0.286842240    -0.812577951
N        0.082190917     0.420050550     1.859235876
C        1.153924723    -0.202837008     2.458290652
C       -1.142779235     0.209617001     2.456283458
N       -2.177188634     0.168759423     2.985545785
N        2.134916236    -0.609494665     2.931548953
C        0.000188803    -0.011398855    -4.667767213
C       -0.668854681     0.976673643    -3.954681798
C       -0.688058761     0.935367354    -2.559640958
N       -0.004807249    -0.025957955    -1.858751169
C        0.671881201    -0.991804712    -2.564066520
C        0.664257333    -1.012140687    -3.961840538
H        0.007516933    -0.000771207    -5.768811833
H       -1.187469904     1.792899523    -4.469469312
H       -1.280570718     1.697950859    -2.011960195
H        1.244824543    -1.773033291    -2.027647746
H        1.183205376    -1.819702520    -4.492409552
