40
#1003_Mn_3_eq_5_ax1_14_ax2_42_5
Mn       -0.294918321     0.229888892     4.063412722
N        0.302027271    -0.552563189     5.983691931
H        0.113533364     0.077623740     6.750653297
H       -0.178854012    -1.435479531     6.109342408
H        1.299748033    -0.695509174     5.867159081
C        0.204823672     3.264850686     3.610152131
C        0.175756829     2.170103651     4.669050115
H       -0.779831115     3.431911516     3.159195649
H        0.908681074     3.042411128     2.799061113
H        0.520990590     4.214249828     4.061851613
H       -0.566771552     2.375464885     5.442032951
H        1.155958968     2.000300585     5.117589585
C        2.831088544     0.718357383     3.624053890
C        1.554548253     0.043341331     3.146161319
H        3.128786606     0.395086096     4.625341878
H        2.744242710     1.811136971     3.636368530
H        3.655899459     0.469106363     2.942135427
H        1.704895057    -1.029363400     3.045783377
H        1.114630432     0.503532825     2.252381484
C        0.106126466    -2.867754617     3.371144640
C       -0.845618519    -1.684878042     3.487511659
H        0.681423630    -3.046627614     4.283461205
H        0.818789935    -2.739276263     2.547062114
H       -0.466216045    -3.781093026     3.159885989
H       -1.639263167    -1.894238198     4.205364258
H       -1.219091933    -1.336169399     2.520218805
C       -3.469364945    -0.118268384     3.843383100
C       -2.296916109     0.752883434     4.273133189
H       -3.565692880    -1.017605663     4.460138566
H       -3.390768902    -0.439513157     2.798720793
H       -4.405209933     0.447810744     3.940585707
H       -2.309837374     0.948851371     5.344848028
H       -2.225707054     1.657658918     3.663292484
C        0.382688456    -0.450529547   -11.898426967
C       -1.008092938    -0.519619201   -11.898805463
C        1.136447969    -1.621166578   -11.897866386
C        1.017535140     0.788687799   -11.910818618
N        1.547545477     1.825764942   -11.929537524
N        1.765339180    -2.601684772   -11.904845307
N       -2.171378916    -0.577958152   -11.907398641
