40
#1003_Mn_3_eq_5_ax1_14_ax2_42_3
Mn       -0.368050857     0.119236951     3.999870227
N        1.444074824    -0.531666324     4.486986009
H        1.355071422    -0.833226970     5.448296181
H        1.558793201    -1.282670126     3.808989381
H        2.029817814     0.285639801     4.335629371
C        0.203983602     3.224927037     4.084163890
C        0.152988122     1.940230887     4.890579316
H       -0.746054646     3.436876558     3.578020655
H        0.980957957     3.191754462     3.311107783
H        0.422204664     4.077640893     4.740506439
H       -0.721848472     1.847893211     5.543263573
H        1.085359279     1.774444657     5.430441193
C        1.812136096     0.647655805     1.728093643
C        0.338042730     0.442755158     2.064469935
H        2.418307859    -0.246011955     1.895505717
H        2.252580258     1.481487547     2.285373796
H        1.896681997     0.897318070     0.660544034
H       -0.079200162    -0.479073332     1.649297642
H       -0.261904269     1.328977450     1.838208024
C       -0.147506157    -3.076488019     4.448938554
C       -0.996356882    -1.826404614     4.356282858
H        0.578763267    -3.048715137     5.265663947
H        0.386202966    -3.280959218     3.513444941
H       -0.799169412    -3.942837076     4.636195400
H       -1.314250215    -1.384601422     5.313091792
H       -1.782087336    -1.914942227     3.609432117
C       -3.109923518     0.140163240     2.454753798
C       -2.330241033     0.730818413     3.624343296
H       -3.249245407    -0.942343725     2.547739307
H       -2.613331830     0.328675074     1.495908594
H       -4.107344752     0.596120665     2.406790915
H       -2.773195898     0.490155510     4.592564317
H       -2.171062115     1.803345955     3.495750472
C        0.665223524    -0.422329276   -10.908482582
C       -0.712584108    -0.540993920   -11.071351692
C        1.443251390    -1.559311450   -10.706679028
C        1.265921259     0.832889918   -10.957087227
N        1.769099756     1.882299553   -11.005781246
N        2.094861226    -2.511207154   -10.545040306
N       -1.864213781    -0.639479880   -11.215194100
