65
#1004_Cr_3_eq_25_ax1_37_ax2_9_2
Cr       -0.011568756    -0.006540316    -0.024389178
O        0.061497481     1.899289157     0.070841507
C        1.273658021     2.409055953     0.038134174
C        2.331527095     1.411959099     0.045762846
C        3.653665027     1.797196914     0.001085035
C        3.964051592     3.179524674    -0.050690341
C        5.430076393     3.560657737    -0.115261154
C        6.146472478     3.033086468     1.146070037
C        6.059577158     2.930147306    -1.376432720
C        5.660868697     5.085828200    -0.187128979
C        2.953610585     4.120957669    -0.046180283
C        1.589926825     3.747811007    -0.001487273
O        1.898041574     0.174941995     0.094151784
H        4.430054964     1.046944481     0.005476753
H        5.689248069     3.456065329     2.046822136
H        7.206743244     3.280935620     1.143163324
H        6.047312875     1.943349236     1.222676994
H        5.517004650     3.253760353    -2.271588558
H        5.989743050     1.836661997    -1.341465050
H        7.108037408     3.203118622    -1.485768573
H        5.174531750     5.510083832    -1.070904321
H        6.724009960     5.322667161    -0.241821701
H        5.249348554     5.583482966     0.696248674
H        3.173054234     5.179505553    -0.078028222
H        0.814168495     4.497554845    -0.001093685
O       -0.089220993    -1.915946694    -0.029809457
C       -1.302137249    -2.423347618    -0.012483900
C       -2.358945103    -1.425482001    -0.036776607
C       -3.682145847    -1.809383959    -0.030260454
C       -3.995628429    -3.191665166    -0.002520897
C       -5.462895234    -3.573008755    -0.001846281
C       -6.132215093    -3.002175230     1.266311931
C       -6.141128225    -2.985641562    -1.258629276
C       -5.695009262    -5.099684011    -0.013717083
C       -2.986016499    -4.133697984     0.025000617
C       -1.621309086    -3.761739354     0.020920850
O       -1.923625009    -0.188385963    -0.065584447
H       -4.457550403    -1.057967082    -0.041565792
H       -5.641995238    -3.394902145     2.163684557
H       -7.191850975    -3.249320128     1.311084715
H       -6.030382382    -1.910551943     1.302465932
H       -5.640592891    -3.346993974    -2.163119709
H       -6.063843493    -1.892017279    -1.267955372
H       -7.195206060    -3.253687755    -1.312147705
H       -5.241158158    -5.553864283    -0.899766464
H       -6.759236969    -5.337619533    -0.020629723
H       -5.250807629    -5.567163226     0.870342375
H       -3.206910524    -5.191987943     0.051578198
H       -0.846750608    -4.512508387     0.046253520
N       -0.056769521    -0.031835675     1.960883516
C        0.793236520    -0.795391506     2.682983560
C       -0.976468301     0.671772942     2.658559471
N       -1.782022807     1.292644835     3.230737785
N        1.542709073    -1.464372160     3.276576985
C        0.207696764     0.154733649    -4.728607773
C        1.088959488    -0.665738768    -3.988439317
C        0.991310422    -0.721431706    -2.618935545
N        0.041146797     0.016749660    -1.901264830
C       -0.831411464     0.815898819    -2.651041655
C       -0.765462151     0.896245924    -4.021497576
H        0.275625683     0.212802553    -5.796938479
H        1.838742076    -1.244597455    -4.509072242
H        1.653402787    -1.343020071    -1.998258989
H       -1.571638276     1.371136944    -2.056492815
H       -1.455204733     1.524092882    -4.567722993
