65
#1004_Cr_3_eq_25_ax1_37_ax2_9_4
Cr        0.082249799     0.074110375     0.129295998
O        0.104740356     1.995723188     0.208674370
C        1.333205912     2.441305850     0.118160950
C        2.388559370     1.431287378     0.092370380
C        3.709594257     1.813559150    -0.007731369
C        4.034202364     3.192423088    -0.082785184
C        5.500340309     3.558863074    -0.198873568
C        6.246837486     3.052546413     1.053758972
C        6.089824739     2.897895595    -1.463960668
C        5.741211527     5.080788995    -0.311065973
C        3.033664825     4.140953369    -0.047888565
C        1.670845479     3.776946560     0.053421397
O        1.995483501     0.181923978     0.169708515
H        4.479649244     1.056463798    -0.021941762
H        5.808035135     3.489042206     1.957611039
H        7.306033018     3.301032284     1.023467081
H        6.147864353     1.964356395     1.150751994
H        5.533790253     3.219544247    -2.351361131
H        5.997307044     1.806493051    -1.411276763
H        7.140675612     3.146885471    -1.599989524
H        5.232466255     5.488963307    -1.189734633
H        6.803953776     5.307174515    -0.401190214
H        5.358605122     5.600830305     0.572182605
H        3.257997671     5.197499302    -0.099069118
H        0.902021202     4.533212237     0.076357820
O       -0.038884234    -2.013523131     0.089508570
C       -1.231579051    -2.385777614     0.024027024
C       -2.309467206    -1.351941316     0.039128770
C       -3.661684317    -1.779060740    -0.048595240
C       -3.978459953    -3.117693958    -0.147948781
C       -5.441405328    -3.507926576    -0.248675966
C       -6.174320487    -3.019955926     1.017300943
C       -6.049128285    -2.838527694    -1.498446178
C       -5.665576214    -5.028400343    -0.371346017
C       -2.951017023    -4.094418876    -0.155456934
C       -1.622231056    -3.751500191    -0.071487682
O       -1.979192345    -0.146220898     0.122222433
H       -4.421094574    -1.004260117    -0.029661057
H       -5.727511034    -3.461208534     1.915081683
H       -7.232578566    -3.279966890     0.996084925
H       -6.094562125    -1.930668707     1.125556452
H       -5.497502836    -3.131991159    -2.398999886
H       -5.989548718    -1.745403177    -1.430506598
H       -7.095716350    -3.110756944    -1.632790387
H       -5.178529076    -5.427239055    -1.267025233
H       -6.729389826    -5.264584355    -0.440844913
H       -5.265858591    -5.558240274     0.498913327
H       -3.211718418    -5.143873801    -0.229085425
H       -0.838774928    -4.500143695    -0.080492578
N       -0.038197909    -0.107539273     2.219780131
C       -1.119529168     0.352775981     2.867948689
C        1.061064332    -0.336693168     2.957788212
N        2.023874781    -0.594201851     3.568996873
N       -2.109831995     0.698692916     3.386065605
C       -0.264133243    -0.265409919    -4.637925272
C       -1.104587594     0.600495246    -3.905759775
C       -0.946285369     0.731353942    -2.546123766
N        0.013810802     0.027250304    -1.827024097
C        0.857808982    -0.794937849    -2.565236622
C        0.739805527    -0.958260296    -3.924712654
H       -0.375909737    -0.385497678    -5.694617449
H       -1.869095032     1.161429864    -4.424512521
H       -1.569513061     1.405240937    -1.948006345
H        1.632052947    -1.305320063    -1.980390664
H        1.413712334    -1.612319644    -4.459058334
