24
#1006_Co_2_eq_37_ax1_11_ax2_0_4
Co       -4.065731718     5.142534304     1.143915084
C       -2.764690983     4.340335796     1.908351681
H       -2.271373195     3.659531632     1.170165679
O       -2.299056554     4.366434230     3.041458924
N       -5.668766242     6.521177400     1.396418198
C       -6.529404719     6.751067282     0.390281547
C       -5.869428329     7.200233104     2.536265325
N       -5.978639614     7.750476467     3.561783838
N       -7.228548449     6.886021160    -0.536038800
N       -5.372802735     3.420161626     0.834527870
C       -6.458908787     3.221096786     1.603159220
C       -5.202281073     2.557401934    -0.181318677
N       -4.966490795     1.841338604    -1.075088223
N       -7.367945713     3.102818321     2.328168613
N       17.326900472   -20.466105040    -1.468196099
C       17.046439249   -21.738388014    -1.243134388
C       17.927680906   -20.077976095    -2.580572131
N       18.453266575   -19.588226735    -3.508795153
N       16.737238427   -22.819601477    -0.906583994
N       -2.900860507     6.424861964    -0.189597653
C       -2.108235720     5.928280974    -1.154446249
C       -2.913793408     7.765439246    -0.071988492
N       -2.965074431     8.920207158     0.099781509
N       -1.437537502     5.410669676    -1.960419485
