32
#1007_Mn_2_eq_44_ax1_39_ax2_42_6
Mn       -0.162562959     0.049289604     0.932633984
P       -0.107811368     3.098892951    -0.141918543
H       -0.408054124     4.059215696     0.953793936
H        1.117992624     3.663103639    -0.774084292
H       -1.175315370     3.370241648    -1.143608465
P        2.851413774    -0.038761675    -0.261259574
H        3.188521689     1.049174715    -1.220501593
H        3.930850228     0.058763914     0.761481413
H        3.204812494    -1.276758283    -1.010500280
P       -0.162246292    -3.142807076     0.005505788
H        0.650472491    -3.352769979    -1.233708656
H        0.198547733    -4.337687712     0.828415412
H       -1.535173944    -3.492741413    -0.461342116
P       -3.306454049     0.287632626    -0.431921024
H       -3.491680364    -0.935693648     0.393205709
H       -4.726034149     0.829247700    -0.314903135
H       -3.400354821    -0.233317314    -1.826653372
C        0.400565855    -0.004622293    -2.530096094
C        0.638893885     1.286604134    -3.025329891
C       -0.396873885    -0.152440153    -1.432587797
C        1.018059603    -1.140980341    -3.074569430
N        1.532376746    -2.113629068    -3.441716513
N       -1.234749676    -0.278408542    -0.552285942
N        0.835306127     2.385845378    -3.339755257
S        0.667408456     0.313923651     2.977531703
C       -0.619238445    -0.137732663     4.248892703
C       -0.998141346    -1.606726650     4.258597033
H       -1.522043950    -1.861687729     5.193024374
H       -0.124506177    -2.270402715     4.201127051
H       -1.676022068    -1.882172428     3.442214631
H       -1.509614693     0.507097481     4.134697116
H       -0.146525074     0.146205330     5.212801678
