32
#1007_Mn_2_eq_44_ax1_39_ax2_42_2
Mn       -0.577976455    -0.542128738    -0.039605042
P       -0.195106199     2.966431904     0.287770630
H       -0.851816722     3.629065854     1.460358610
H        1.069346516     3.762354343     0.169761372
H       -1.002862974     3.529320431    -0.837713446
P        2.917370696    -0.087734656     0.238091576
H        4.284123052     0.267237515    -0.290258637
H        2.725621550     1.017501464     1.226881234
H        3.266313642    -1.224767734     1.149130296
P        0.784283997    -3.669772257    -0.736422677
H        2.259488548    -3.644320870    -0.968614386
H        0.671040446    -4.710911476     0.333992501
H        0.302451269    -4.423294917    -1.934947578
P       -3.741905341     0.896540577    -0.197011839
H       -4.088693292    -0.327909151     0.569580599
H       -4.748323843     1.843407175     0.444002717
H       -4.439062161     0.705699858    -1.498520494
C        0.119893455    -0.018544484    -2.049793907
C        0.837377223     1.217935729    -2.097055559
C       -1.281381292    -0.030504395    -1.855278546
C        0.785975792    -1.131154731    -2.651202848
N        1.341162044    -2.052065216    -3.084295840
N       -2.187719054    -0.137728760    -1.002853914
N        1.417553607     2.221557732    -2.086976577
S       -0.042296794    -1.145302226     1.991960495
C       -0.224089071     0.281646168     3.193631494
C       -0.085299944    -0.296098235     4.592408023
H       -0.198672051     0.495218115     5.348433471
H        0.895017219    -0.761736107     4.763200277
H       -0.849023615    -1.055807704     4.813459974
H       -1.207400959     0.770757428     3.075816820
H        0.560878751     1.032488947     3.010611622
