32
#1008_Mn_3_eq_23_ax1_16_ax2_2_3
Mn        0.000144269     0.001091838     0.539643841
O       -0.179026921     1.885097603     0.558857925
C        0.714228098     2.523086366    -0.110468875
C        0.290125785     3.928047807    -0.422388778
C        1.993536939     2.073408915    -0.465737541
C        2.453337781     0.804698113    -0.128937874
O        1.865156938    -0.067066313     0.637319378
C        3.818373009     0.339964971    -0.538217996
H       -0.681639989     4.171801790     0.036284762
H        0.172784392     4.049212338    -1.511557594
H        1.026982303     4.663789930    -0.075347985
H        4.584356271     1.107959546    -0.377253097
H        3.812819013     0.081147751    -1.610840062
H        4.119075612    -0.569121116     0.007336741
H        2.628186109     2.724431376    -1.057219938
O        0.182050072    -1.883077181     0.557901375
C       -0.712236190    -2.521962801    -0.108785753
C       -0.288976323    -3.926693628    -0.423078083
C       -1.992719020    -2.073629534    -0.461452784
C       -2.453677631    -0.805040813    -0.126022711
O       -1.865234801     0.069624174     0.636563401
C       -3.820051722    -0.344724211    -0.535047422
H        0.678255772    -4.175362242     0.041620688
H       -0.163460256    -4.042201530    -1.512124022
H       -1.030313566    -4.661847610    -0.086365397
H       -4.582208120    -1.117655253    -0.381014883
H       -3.812876435    -0.080265321    -1.606358579
H       -4.127074030     0.559067825     0.014667778
H       -2.627079619    -2.725769431    -1.051486490
Cl       -0.000532073     0.001226456    -1.679276279
C       -0.002489314     0.000911966     2.445360590
O       -0.005120077     0.001031575     3.586874308
