29
# extracted from Terachem optimization
Mn -0.2224494173 0.0050668185 -0.1099287562
O 0.2005824036 2.1880097761 -0.0048768375
H 1.1522993690 2.2467708974 0.1971222314
H -0.2545453924 2.7331155936 0.6602960984
O 2.1351349480 0.0416380825 0.0944127504
H 2.8479741683 -0.0228376040 -0.5607025653
H 2.5304743493 -0.1130959152 0.9850182759
O 0.1942328037 -2.2073090610 -0.0345874527
H 1.1224663330 -2.3090378548 0.2420868991
H -0.3284754654 -2.7284308138 0.5996924789
O -2.3978965282 0.0732487570 0.1551691374
H -2.7480576271 0.2335061431 1.0614116212
H -3.1307015672 0.1600712111 -0.4741310335
N -0.1772207861 -0.1142052656 2.1147057612
C 0.9963141493 -0.3758724333 2.6695559484
C -1.2694794143 0.2714920006 2.7641562455
N -2.3427808730 0.6179379844 3.0855411429
N 2.1200701709 -0.6283017477 2.8959394779
C -0.0009453540 -0.0077550742 -5.1289332325
C -0.0614892702 1.1932791531 -4.4215557527
C -0.1059225753 1.1527967259 -3.0326498784
N -0.0967279109 -0.0042712781 -2.3323865179
C -0.0347777529 -1.1634993282 -3.0265641864
C 0.0144821350 -1.2064949414 -4.4153158022
H 0.0350747665 -0.0098318664 -6.2141357730
H -0.0729660095 2.1500184914 -4.9330479447
H -0.1472883882 2.0632601955 -2.4450442335
H -0.0223255746 -2.0711820244 -2.4335172908
H 0.0650733726 -2.1648987726 -4.9209433890
