24
# extracted from Terachem optimization
Co 0.0106711941 0.0284535386 0.3440396613
C 0.1488431455 -0.1356255751 2.1670529597
H 0.2759519464 -1.2181501200 2.4507264524
O 0.1294097146 0.7217937551 3.0209611303
N -1.5773277088 1.5831341259 0.1334019465
C -2.5192486446 1.4630553902 -0.7981912372
C -1.6705210278 2.6729207332 0.8922170612
N -1.7421507522 3.6255824188 1.5765562592
N -3.3273402308 1.3240593449 -1.6407239309
N -1.5459701911 -1.5668795277 0.1231327684
C -2.4172345407 -1.8013509686 1.0972222738
C -1.6258921620 -2.3619402496 -0.9390405750
N -1.6655409583 -3.0371711298 -1.8999295735
N -3.1534058713 -1.9769301436 1.9971597367
N 1.5847935572 -1.5616458138 -0.1043027823
C 1.7539179582 -2.6030171187 0.6981823517
C 2.3570882301 -1.5106794762 -1.1842808397
N 3.0119475567 -1.4276493317 -2.1566527837
N 1.8595198094 -3.4892392197 1.4650299842
N 1.5603961992 1.5724160630 0.0028203502
C 1.4743848509 2.4726670859 -0.9718117385
C 2.6602455845 1.6270772423 0.7475257389
N 3.6143674329 1.6460894729 1.4336379866
N 1.3646489104 3.2440533259 -1.8517903911
