32
# extracted from Terachem optimization
Mn 0.1848858502 -0.1742255161 0.1101585846
P -0.1972398461 2.1360719553 0.4983824065
H -0.7671617765 2.4959383302 1.7404724212
H 0.9018143327 3.0223574667 0.5274637158
H -1.0430165418 2.9088774681 -0.3304143119
P 2.5417079751 0.1390238613 -0.0645975248
H 3.0906150161 1.2626108937 0.5925173031
H 3.3723363648 -0.8492986325 0.5086065433
H 3.2183112626 0.2778343429 -1.2989070498
P 0.4956945967 -2.5358690318 -0.1039301634
H 1.7670444682 -3.0980830484 0.1522078067
H -0.2477812642 -3.3298092466 0.7974689404
H 0.2059247790 -3.2425091673 -1.2938356225
P -2.1544045691 -0.5053379271 0.3935056226
H -2.7735811177 -1.6590039669 -0.1396515569
H -2.6274228314 -0.6396060646 1.7179273946
H -3.1142020993 0.4262521874 -0.0625058390
C 0.0755763821 0.1018476798 -2.2486549407
C 0.5779680548 1.4437571834 -2.4228370219
C -1.3165993743 -0.0652611668 -2.5816403199
C 0.9442491950 -0.9072057674 -2.8068323909
N 1.6643697533 -1.7348362899 -3.2003432876
N -2.4515884659 -0.2187717130 -2.8003245797
N 1.0074091372 2.5250211570 -2.5056532466
S 0.6639386132 -0.5233124769 2.3635895108
C -0.5187613892 0.1832475583 3.6026975185
C -1.1287714764 -0.8994054673 4.4933320755
H -1.7634698618 -0.4490711162 5.2678186166
H -0.3457294292 -1.4833472305 4.9873324945
H -1.7426971316 -1.5952049362 3.9103638948
H -1.3081252993 0.7466903157 3.0952399544
H 0.0442629134 0.8978592137 4.2129316538
