67
# extracted from Terachem optimization
Mn 0.0279436244 -0.0002706846 0.0340856771
C 4.5124007559 -0.4806917022 0.0029470189
C 4.9022809551 0.8462226940 0.0042158022
C 3.9190683409 1.8657273870 -0.0018500229
C 4.2277358882 3.2672960556 0.0002310758
C 3.2339247945 4.2029545278 -0.0048086098
C 1.8511224193 3.8154455417 -0.0080252289
C 0.7819039766 4.7419661705 -0.0080563259
C -0.5257442934 4.2859562080 -0.0077058997
C -0.7733841231 2.9070913906 -0.0016472393
N 0.2181299291 2.0052485716 0.0051665805
C 1.5224357997 2.4372394670 -0.0058909176
C 2.5635558845 1.4578021210 -0.0101095854
N 2.1902512779 0.1431489846 -0.0210305257
C 3.1422610393 -0.7928831122 -0.0108591162
H 5.2421824744 -1.2831415317 0.0106538967
H 5.9554956474 1.1128202509 0.0110801136
H 5.2705540926 3.5698353601 0.0050223693
H 3.4742703988 5.2615003758 -0.0041062713
H 0.9939100217 5.8077369622 -0.0072617622
H -1.3640494859 4.9740161022 -0.0098578020
H -1.7808530445 2.5103527859 0.0021548633
H 2.8066657422 -1.8247034045 -0.0164440591
C 0.0097412020 0.4658105345 4.5179485788
C 0.0079415678 -0.8629549107 4.9021930149
C 0.0051323829 -1.8790546824 3.9151985030
C 0.0030861963 -3.2820647280 4.2182961805
C -0.0022774810 -4.2142620066 3.2210099104
C -0.0040722796 -3.8211762453 1.8396163792
C -0.0066582807 -4.7431183550 0.7662847101
C -0.0072671326 -4.2821646609 -0.5397491427
C -0.0021469214 -2.9023689760 -0.7818963087
N 0.0071433105 -2.0049781351 0.2138294533
C 0.0007508138 -2.4416541661 1.5164376624
C 0.0018844524 -1.4659144058 2.5614452500
N -0.0027130352 -0.1496685912 2.1939544301
C 0.0046052987 0.7831041353 3.1489203781
H 0.0129115756 1.2656329274 5.2507928200
H 0.0087900668 -1.1342494419 5.9541537139
H 0.0051796562 -3.5885641383 5.2599397119
H -0.0042928873 -5.2739932910 3.4571104846
H -0.0073277357 -5.8097105238 0.9738579381
H -0.0107882032 -4.9669647299 -1.3808365645
H -0.0014026994 -2.5010111009 -1.7876206522
H 0.0021995430 1.8158015426 2.8157048817
C 0.4127327601 0.0146630340 -4.4664975690
C -0.9124484192 0.0110077732 -4.8616515897
C -1.9367711575 0.0081520315 -3.8852852638
C -3.3314036493 0.0048496227 -4.2210312903
C -4.2863396856 -0.0022068130 -3.2477720672
C -3.9230989507 -0.0051252287 -1.8600531886
C -4.8790037748 -0.0089162605 -0.8164508120
C -4.4580778034 -0.0121440474 0.5007794329
C -3.0817910906 -0.0052843290 0.7747506163
N -2.1538562359 0.0065121286 -0.1872921580
C -2.5520706440 -0.0006707124 -1.4935874651
C -1.5433776874 0.0042166237 -2.5219743674
N -0.2298220337 -0.0026344125 -2.1491393850
C 0.7138091616 0.0091331135 -3.0954130057
H 1.2180388099 0.0171548665 -5.1930399746
H -1.1760118404 0.0089014834 -5.9157839232
H -3.6120188199 0.0069200713 -5.2694324193
H -5.3403010927 -0.0048774271 -3.5078258228
H -5.9384500250 -0.0080200562 -1.0579893846
H -5.1684058979 -0.0154112476 1.3203237131
H -2.7195704548 0.0018896480 1.7979691790
H 1.7449190254 0.0028845699 -2.7557066133
