65
11/10/2016 15:44, XYZ structure generated by mol3D Class, molSimplify
Co 	0.000000	0.000000	0.000000
C 	0.000000	-0.000000	1.960000
N 	0.000000	-0.000000	3.105100
C 	0.000000	-0.000000	4.643000
H 	0.622372	-0.859403	4.995200
H 	-1.055428	-0.109301	4.995200
H 	0.433057	0.968704	4.995200
C 	-0.000222	4.947098	-0.000530
C 	0.328700	4.244231	-1.155148
C 	0.312909	2.859343	-1.106109
N 	0.000000	2.150000	-0.000006
C 	-0.312909	2.859849	1.106097
C 	-0.328510	4.244769	1.154025
H 	-0.000317	6.033290	-0.000986
H 	0.590487	4.761882	-2.070597
H 	0.558981	2.265684	-1.981839
H 	-0.558516	2.266713	1.982026
H 	-0.589995	4.762938	2.069785
C 	4.947098	-0.000379	-0.000431
C 	4.244231	-1.182301	-0.211127
C 	2.859343	-1.131304	-0.203815
N 	2.150000	-0.000005	-0.000002
C 	2.859849	1.131293	0.203810
C 	4.244769	1.181209	0.210805
H 	6.033290	-0.000747	-0.000717
H 	4.761882	-2.119836	-0.377281
H 	2.265684	-2.026251	-0.366675
H 	2.266713	2.026215	0.367175
H 	4.762938	2.118890	0.377368
C 	-0.000021	-4.947098	-0.000574
C 	-0.782751	-4.244231	-0.910885
C 	-0.747854	-2.859343	-0.872985
N 	-0.000002	-2.150000	-0.000005
C 	0.747849	-2.859849	0.872975
C 	0.782108	-4.244769	0.909945
H 	-0.000125	-6.033290	-0.001028
H 	-1.404252	-4.761882	-1.632214
H 	-1.338435	-2.265684	-1.564844
H 	1.338091	-2.266713	1.565209
H 	1.403465	-4.762938	1.631683
C 	-4.947098	-0.000237	-0.000523
C 	-4.244231	0.295361	-1.164118
C 	-2.859343	0.280987	-1.114646
N 	-2.150000	-0.000000	-0.000006
C 	-2.859849	-0.280987	1.114634
C 	-4.244769	-0.295204	1.162991
H 	-6.033290	-0.000345	-0.000976
H 	-4.761882	0.530727	-2.086714
H 	-2.265684	0.501785	-1.997087
H 	-2.266713	-0.501315	1.997260
H 	-4.762938	-0.530258	2.085888
S 	0.000099	0.000228	-2.280000
C 	0.000099	0.000228	-4.117128
C 	1.342968	-0.554515	-4.610833
H 	1.384913	-0.538676	-5.707527
H 	1.505390	-1.590326	-4.295710
H 	2.194244	0.042296	-4.253733
C 	-0.173444	1.449983	-4.591537
H 	0.652821	2.093969	-4.258816
H 	-1.104650	1.896490	-4.224344
H 	-0.200226	1.498752	-5.686604
C 	-1.158966	-0.873350	-4.627414
H 	-1.429238	-1.689506	-3.946057
H 	-0.907151	-1.337078	-5.588291
H 	-2.066154	-0.280003	-4.795861
