29
11/10/2016 15:44, XYZ structure generated by mol3D Class, molSimplify
Mn 	0.000000	0.000000	0.000000
O 	-0.000000	2.060000	0.000000
H 	0.685027	2.666198	-0.379294
H 	-0.685027	2.666184	0.379294
O 	2.060000	0.000000	0.000000
H 	2.666198	0.027327	-0.782547
H 	2.666184	-0.027327	0.782547
O 	-0.000000	-2.060000	0.000000
H 	0.709817	-2.666198	-0.330585
H 	-0.709817	-2.666184	0.330585
O 	-2.060000	0.000000	0.000000
H 	-2.666198	0.027327	0.782547
H 	-2.666184	-0.027327	-0.782547
N 	-0.000000	-0.000001	2.190000
C 	1.177245	-0.235790	2.881872
C 	-1.177245	0.235787	2.881956
N 	-2.160716	0.432664	3.459473
N 	2.160710	-0.432839	3.459283
C 	0.000073	0.000572	-4.987098
C 	-0.621954	1.027419	-4.284231
C 	-0.593780	0.984287	-2.899343
N 	-0.000002	0.000008	-2.190000
C 	0.593775	-0.984270	-2.899849
C 	0.621474	-1.026380	-4.284769
H 	0.000045	0.001037	-6.073290
H 	-1.116098	1.841299	-4.801882
H 	-1.062281	1.764005	-2.305684
H 	1.061881	-1.764303	-2.306713
H 	1.115407	-1.840640	-4.802938
